LTspice 24.1.6 for Windows
Circuit: C:\Users\aaron\Desktop\Code\6.1820-NEPTUNE\Hardware - Electronics\hydrophoneSim.net
Start Time: Tue Apr  8 17:25:42 2025
solver = Normal
Maximum thread count: 32
tnom = 27
temp = 27
method = trap
.OP point found by inspection.
Total elapsed time: 0.091 seconds.

Files loaded:
C:\Users\aaron\Desktop\Code\6.1820-NEPTUNE\Hardware - Electronics\hydrophoneSim.net

